tests/data/power_flow/pandapower/networks/asymmetric/distribution-case/asym_output_batch.json
{
  "version": "1.0",
  "type": "asym_output",
  "is_batch": true,
  "attributes": {},
  "data": [
    {
      "asym_gen": [
        {
          "id": 23,
          "p": [
            15000.0,
            15500.0,
            13999.999999999998
          ],
          "q": [
            3000.0,
            3499.9999999999995,
            2500.0
          ]
        }
      ],
      "asym_load": [
        {
          "id": 22,
          "p": [
            20000.0,
            19000.0,
            20499.999999999996
          ],
          "q": [
            5000.0,
            4500.0,
            5500.0
          ]
        }
      ],
      "line": [
        {
          "id": 9,
          "p_from": [
            41919.38985768766,
            40918.123180599236,
            42420.015024182314
          ],
          "q_from": [
            12186.1124193712,
            11685.38309967418,
            12685.575169309663
          ],
          "p_to": [
            -41904.33897229576,
            -40904.30192876447,
            -42404.351712727876
          ],
          "q_to": [
            -12180.858487736905,
            -11680.854469913742,
            -12680.850585642656
          ]
        },
        {
          "id": 10,
          "p_from": [
            26781.567432149397,
            26280.20605429964,
            27782.674777159405
          ],
          "q_from": [
            12870.610865535016,
            12369.616342240943,
            13370.316586107738
          ],
          "p_to": [
            -26775.266101001525,
            -26274.20953655907,
            -27775.53183053248
          ],
          "q_to": [
            -12863.828793618131,
            -12363.52624047627,
            -13363.248190011578
          ]
        },
        {
          "id": 11,
          "p_from": [
            21904.34021067074,
            21904.302616695168,
            21904.349612262202
          ],
          "q_from": [
            7180.859517607588,
            7180.851502120587,
            7180.852706232262
          ],
          "p_to": [
            -21850.001032678323,
            -21849.99600942294,
            -21850.0030312257
          ],
          "q_to": [
            -7163.42557427719,
            -7163.427898402818,
            -7163.434127078293
          ]
        },
        {
          "id": 12,
          "p_from": [
            41775.26511841276,
            41774.209085553346,
            41775.53305072015
          ],
          "q_from": [
            15863.828034791888,
            15863.528993521455,
            15863.24639649389
          ],
          "p_to": [
            -41455.06946831703,
            -41454.216727738516,
            -41455.27925568279
          ],
          "q_to": [
            -15756.052601673295,
            -15755.8266192389,
            -15755.563789202804
          ]
        },
        {
          "id": 13,
          "p_from": [
            0.0024088951342025474,
            -0.0032812969988007777,
            0.0009446333225023787
          ],
          "q_from": [
            -16.57301031850624,
            -16.575648991762357,
            -16.563740609317247
          ],
          "p_to": [
            1.1098917374403864e-10,
            1.1085463826163234e-10,
            1.1103805243552337e-10
          ],
          "q_to": [
            6.982144593908453e-10,
            6.983201200950451e-10,
            6.980860668715096e-10
          ]
        },
        {
          "id": 14,
          "p_from": [
            18121.738017410888,
            18120.879351020885,
            18121.94808089033
          ],
          "q_from": [
            5756.055624987927,
            5755.813963913053,
            5755.573424800419
          ],
          "p_to": [
            -17442.95942087901,
            -17442.580642991215,
            -17443.0456141881
          ],
          "q_to": [
            -5598.620494501657,
            -5598.53284931439,
            -5598.345002878948
          ]
        },
        {
          "id": 15,
          "p_from": [
            17442.959420878746,
            17442.58064299095,
            17443.04561418784
          ],
          "q_from": [
            5598.620494502114,
            5598.532849314847,
            5598.345002879406
          ],
          "p_to": [
            -16749.989596358795,
            -16750.09175334119,
            -16749.91865756149
          ],
          "q_to": [
            -5266.645991672095,
            -5266.804924708534,
            -5266.549023864563
          ]
        }
      ],
      "node": [
        {
          "id": 1,
          "u_pu": [
            1.0,
            0.9999999999999999,
            0.9999999999999999
          ],
          "u": [
            11547.005383792515,
            11547.005383792513,
            11547.005383792513
          ],
          "u_angle": [
            2.2279230884717155e-17,
            -2.0943951023931953,
            2.0943951023931953
          ]
        },
        {
          "id": 2,
          "u_pu": [
            0.9973077703024795,
            0.9974105596875134,
            0.9972059980761461
          ],
          "u": [
            230.31836385961685,
            230.34210205126448,
            230.29486057070895
          ],
          "u_angle": [
            -2.6244568063358136,
            1.5644733194389222,
            -0.5302017431548448
          ]
        },
        {
          "id": 3,
          "u_pu": [
            0.9969439844664805,
            0.9970698057728478,
            0.9968374174498892
          ],
          "u": [
            230.23435111948027,
            230.26340830552064,
            230.20974052119396
          ],
          "u_angle": [
            -2.624476505732786,
            1.5644597972949723,
            -0.5302029806530943
          ]
        },
        {
          "id": 4,
          "u_pu": [
            0.9970185501853935,
            0.997135193578115,
            0.9968986974540172
          ],
          "u": [
            230.25157133463497,
            230.27850897230974,
            230.22389253194567
          ],
          "u_angle": [
            -2.62457070500092,
            1.5643715028745748,
            -0.5303078888408223
          ]
        },
        {
          "id": 5,
          "u_pu": [
            0.9944757121779491,
            0.9946026956555105,
            0.994369312569911
          ],
          "u": [
            229.66432805139348,
            229.6936536293746,
            229.6397561144565
          ],
          "u_angle": [
            -2.624461489226571,
            1.5644748002463107,
            -0.5301872295400544
          ]
        },
        {
          "id": 6,
          "u_pu": [
            0.9894861621260385,
            0.989606560262917,
            0.9893667413073147
          ],
          "u": [
            228.51204082515122,
            228.53984558384596,
            228.48446176841645
          ],
          "u_angle": [
            -2.624279456329025,
            1.5646626862711253,
            -0.5300143269411047
          ]
        },
        {
          "id": 7,
          "u_pu": [
            0.9530986867266823,
            0.9532388567379996,
            0.9529809183592302
          ],
          "u": [
            220.10871333837153,
            220.1410842158781,
            220.08151589891136
          ],
          "u_angle": [
            -2.622060126746087,
            1.5668821513026843,
            -0.5277827227517307
          ]
        },
        {
          "id": 8,
          "u_pu": [
            0.9132835265930869,
            0.9134443665357234,
            0.9131657935045696
          ],
          "u": [
            210.9137959699878,
            210.95094036365882,
            210.88660667784862
          ],
          "u_angle": [
            -2.6287763498632555,
            1.560170940995394,
            -0.5344867323358218
          ]
        }
      ],
      "sym_load": [
        {
          "id": 19,
          "p": [
            21849.999999999996,
            21849.999999999996,
            21849.999999999996
          ],
          "q": [
            7180.0,
            7180.0,
            7180.0
          ]
        },
        {
          "id": 20,
          "p": [
            23333.333333333332,
            23333.333333333332,
            23333.333333333332
          ],
          "q": [
            10000.0,
            10000.0,
            10000.0
          ]
        },
        {
          "id": 21,
          "p": [
            16749.999999999996,
            16749.999999999996,
            16749.999999999996
          ],
          "q": [
            5266.666666666666,
            5266.666666666666,
            5266.666666666666
          ]
        }
      ]
    },
    {
      "asym_gen": [
        {
          "id": 23,
          "p": [
            15000.0,
            15500.0,
            13999.999999999998
          ],
          "q": [
            3000.0,
            3499.9999999999995,
            2500.0
          ]
        }
      ],
      "asym_load": [
        {
          "id": 22,
          "p": [
            20000.0,
            19000.0,
            20499.999999999996
          ],
          "q": [
            5000.0,
            4500.0,
            5500.0
          ]
        }
      ],
      "line": [
        {
          "id": 9,
          "p_from": [
            56142.238411120416,
            55140.58845682088,
            56645.7142172498
          ],
          "q_from": [
            18016.500583552785,
            17515.553664557418,
            18513.880961216753
          ],
          "p_to": [
            -56114.84725349233,
            -55114.85392065626,
            -56617.46200062768
          ],
          "q_to": [
            -18007.080145982887,
            -17507.137143457738,
            -18505.16612861637
          ]
        },
        {
          "id": 10,
          "p_from": [
            11848.382708971663,
            11347.616317321945,
            12846.307202426213
          ],
          "q_from": [
            6878.100451717542,
            6377.499013247735,
            7379.900052669567
          ],
          "p_to": [
            -11847.076862030895,
            -11346.436547489615,
            -12844.597848806112
          ],
          "q_to": [
            -6876.611498692926,
            -6376.326684011198,
            -7378.262558728011
          ]
        },
        {
          "id": 11,
          "p_from": [
            36114.848002031096,
            36114.85393367317,
            36117.461163811895
          ],
          "q_from": [
            13007.080749250388,
            13007.135207303443,
            13005.167597927395
          ],
          "p_to": [
            -35964.14252675954,
            -35964.22425070905,
            -35966.708788805896
          ],
          "q_to": [
            -12958.697717577135,
            -12958.786749666167,
            -12956.81371930583
          ]
        },
        {
          "id": 12,
          "p_from": [
            26847.076300144465,
            26846.436443005005,
            26844.598409887345
          ],
          "q_from": [
            9876.611093268204,
            9876.328235437366,
            9878.261533169174
          ],
          "p_to": [
            -26715.892965521674,
            -26715.353158913804,
            -26713.42244258645
          ],
          "q_to": [
            -9832.458168751875,
            -9832.197830077428,
            -9834.163007230634
          ]
        },
        {
          "id": 13,
          "p_from": [
            14114.1436409491,
            14114.222322087717,
            14116.709602665573
          ],
          "q_from": [
            5778.698954176378,
            5778.782818010693,
            5776.8164155383165
          ],
          "p_to": [
            -14032.240124797812,
            -14032.349823503573,
            -14034.75839426247
          ],
          "q_to": [
            -5729.349577412735,
            -5729.471088907574,
            -5727.4435123097055
          ]
        },
        {
          "id": 14,
          "p_from": [
            3382.5606635378604,
            3382.019125520056,
            3380.088777128696
          ],
          "q_from": [
            -167.54044458585,
            -167.8059328088679,
            -165.83461573193978
          ],
          "p_to": [
            -3361.1450691528585,
            -3360.646919804867,
            -3358.7269318153235
          ],
          "q_to": [
            156.59867684091174,
            156.87307632776316,
            154.88042791675713
          ]
        },
        {
          "id": 15,
          "p_from": [
            17393.385193950937,
            17392.996743308704,
            17393.485326078062
          ],
          "q_from": [
            5572.7509005709035,
            5572.598012578892,
            5572.563084392029
          ],
          "p_to": [
            -16749.993337062187,
            -16750.03250538117,
            -16749.974159574
          ],
          "q_to": [
            -5266.656892173373,
            -5266.709057460176,
            -5266.6340325387855
          ]
        }
      ],
      "node": [
        {
          "id": 1,
          "u_pu": [
            1.0,
            0.9999999999999999,
            0.9999999999999999
          ],
          "u": [
            11547.005383792515,
            11547.005383792513,
            11547.005383792513
          ],
          "u_angle": [
            2.2271797198916148e-17,
            -2.0943951023931953,
            2.0943951023931953
          ]
        },
        {
          "id": 2,
          "u_pu": [
            0.9973264134264552,
            0.9974291717450267,
            0.9972246547566703
          ],
          "u": [
            230.3226693046752,
            230.34640032183069,
            230.29916914651815
          ],
          "u_angle": [
            -2.6243895189013866,
            1.5645405775881378,
            -0.5301344143670699
          ]
        },
        {
          "id": 3,
          "u_pu": [
            0.9968364851010563,
            0.9969623144625221,
            0.9967298976680261
          ],
          "u": [
            230.20952520445414,
            230.23858425073985,
            230.18490989119323
          ],
          "u_angle": [
            -2.6243999731421175,
            1.564536316686534,
            -0.5301263976444356
          ]
        },
        {
          "id": 4,
          "u_pu": [
            0.9971897835395578,
            0.9973063538842506,
            0.9970699839404149
          ],
          "u": [
            230.29111598388334,
            230.31803675183855,
            230.2634494515578
          ],
          "u_angle": [
            -2.6244356642093427,
            1.5645064661458334,
            -0.5301727859428488
          ]
        },
        {
          "id": 5,
          "u_pu": [
            0.9927284731799908,
            0.9928559429249814,
            0.9926216195587674
          ],
          "u": [
            229.26082048906957,
            229.29025836570312,
            229.23614370227867
          ],
          "u_angle": [
            -2.6242552984894987,
            1.5646811753156968,
            -0.5299808858347789
          ]
        },
        {
          "id": 6,
          "u_pu": [
            0.9923666409413472,
            0.9924860742105318,
            0.9922480322306472
          ],
          "u": [
            229.1772589129166,
            229.20484084496218,
            229.14986740449626
          ],
          "u_angle": [
            -2.6243002566213174,
            1.5646413979668217,
            -0.530035257504292
          ]
        },
        {
          "id": 7,
          "u_pu": [
            0.9861754569065829,
            0.9863045100936796,
            0.9860670549922229
          ],
          "u": [
            227.74746620528714,
            227.77726976221118,
            227.72243185551255
          ],
          "u_angle": [
            -2.6262198318408063,
            1.5627181818222462,
            -0.531946033625426
          ]
        },
        {
          "id": 8,
          "u_pu": [
            0.9478126300957912,
            0.9479608053915339,
            0.9477051720779245
          ],
          "u": [
            218.88795085085292,
            218.92217046960664,
            218.86313448463613
          ],
          "u_angle": [
            -2.632474935464527,
            1.5564666378010152,
            -0.5381900783432626
          ]
        }
      ],
      "sym_load": [
        {
          "id": 19,
          "p": [
            21849.999999999996,
            21849.999999999996,
            21849.999999999996
          ],
          "q": [
            7180.0,
            7180.0,
            7180.0
          ]
        },
        {
          "id": 20,
          "p": [
            23333.333333333332,
            23333.333333333332,
            23333.333333333332
          ],
          "q": [
            10000.0,
            10000.0,
            10000.0
          ]
        },
        {
          "id": 21,
          "p": [
            16749.999999999996,
            16749.999999999996,
            16749.999999999996
          ],
          "q": [
            5266.666666666666,
            5266.666666666666,
            5266.666666666666
          ]
        }
      ]
    }
  ]
}
